LAMMPS (15 Sep 2022)
Loaded 1 plugins from C:\Users\magnu\AppData\Local\LAMMPS 64-bit 15Sep2022\plugins
# Define variables
# Starting temperature:
variable T equal 1.4
# Number of particles:
variable N equal 500
# Density:
variable rho equal 0.003
# Length of sides of cubic box
variable L equal (500/0.003)^(1/3)
# How much heat to add per timestep
variable eFlux equal 10

# Use Lennard-Jones units, periodic boundaries and atomic model
units lj
boundary p p p
atom_style atomic

# Define the space and put atoms in
dimension 3
region simbox block 0 $L 0 $L 0 $L
region simbox block 0 55.0321208149104 0 $L 0 $L
region simbox block 0 55.0321208149104 0 55.0321208149104 0 $L
region simbox block 0 55.0321208149104 0 55.0321208149104 0 55.0321208149104
create_box 1 simbox
Created orthogonal box = (0 0 0) to (55.032121 55.032121 55.032121)

# Define properties of the atoms

create_atoms 1 random $N 12345 simbox
create_atoms 1 random 500 12345 simbox
Created 500 atoms
mass 1 1.0
velocity all create $T 87287
velocity all create 1.4 87287
pair_style lj/cut 2.5
pair_coeff 1 1 1.0 1.0 2.5

#make sure no explosion happens
minimize 1e-4 1e-4 100 100
Generated 0 of 0 mixed pair_coeff terms from geometric mixing rule
Step          Temp          E_pair         E_mol          TotEng         Press
0   1.4            1.8674523      0              3.9632523      0.027984297
Loop time of 0.004066 on 1 procs for 38 steps with 500 atoms

Minimization stats:
  Stopping criterion = max force evaluations
  Energy initial, next-to-last, final =
  Force two-norm initial, final = 17018.876 5.7922645
  Force max component initial, final = 7146.6965 1.9457274
  Final line search alpha, max atom move = 0.019314494 0.03758074
  Iterations, force evaluations = 38 100

# Speed up simulation with neighbour lists
neighbor 0.3 bin
neigh_modify every 20 delay 0 check yes

# Define thermodynamic ensemble for thermalization
fix nvt all nvt temp $T $T 1
fix nvt all nvt temp 1.4 $T 1
fix nvt all nvt temp 1.4 1.4 1

#Thermalization run
run 1000
Generated 0 of 0 mixed pair_coeff terms from geometric mixing rule
Step          Temp          E_pair         E_mol          TotEng         Press
38   1.4           -0.05330613     0              2.0424939      0.0041761745
Loop time of 0.0174 on 1 procs for 1000 steps with 500 atoms

# Define thermodynamic ensemble for long run
unfix nvt
fix nve all nve

# Start heat addition and run to stabilize
fix heat all heat 1 10 region simbox
run 1000
Generated 0 of 0 mixed pair_coeff terms from geometric mixing rule
Step          Temp          E_pair         E_mol          TotEng         Press
1038   1.3487962     -0.037861844    0              1.9812861      0.0040866428
Loop time of 0.024304 on 1 procs for 1000 steps with 500 atoms

#Define frequency of thermodynamic output and trajectory dump and start production run
thermo 100
dump 1 all custom 100 dump.lammpstrj id x y z vx vy vz
run 100000
Generated 0 of 0 mixed pair_coeff terms from geometric mixing rule
Step          Temp          E_pair         E_mol          TotEng         Press
2038   1.412657      -0.03343916     0              2.0813083      0.0042153818
Averages over the last 501 of 1002 rows, steps 52100 to 102038:
Temp E_pair E_mol TotEng Press
6.36374 -0.0123054 0 9.51422 0.0191085
Loop time of 4.25894 on 1 procs for 100000 steps with 500 atoms
