LAMMPS (15 Sep 2022)
Loaded 1 plugins from C:\Users\magnu\AppData\Local\LAMMPS 64-bit 15Sep2022\plugins
# Define variables
# Starting temperature:
variable T equal 1.4
# Number of particles:
variable N equal 500
# Density:
variable rho equal 0.008
# Length of sides of cubic box
variable L equal (500/0.008)^(1/3)
# How much heat to add per timestep
variable eFlux equal 10

# Use Lennard-Jones units, periodic boundaries and atomic model
units lj
boundary p p p
atom_style atomic

# Define the space and put atoms in
dimension 3
region simbox block 0 $L 0 $L 0 $L
region simbox block 0 39.685026299205 0 $L 0 $L
region simbox block 0 39.685026299205 0 39.685026299205 0 $L
region simbox block 0 39.685026299205 0 39.685026299205 0 39.685026299205
create_box 1 simbox
Created orthogonal box = (0 0 0) to (39.685026 39.685026 39.685026)

# Define properties of the atoms

create_atoms 1 random $N 12345 simbox
create_atoms 1 random 500 12345 simbox
Created 500 atoms
mass 1 1.0
velocity all create $T 87287
velocity all create 1.4 87287
pair_style lj/cut 2.5
pair_coeff 1 1 1.0 1.0 2.5

#make sure no explosion happens
minimize 1e-4 1e-4 100 100
Generated 0 of 0 mixed pair_coeff terms from geometric mixing rule
Step          Temp          E_pair         E_mol          TotEng         Press
0   1.4            104.44473      0              106.54053      3.379756
Loop time of 0.005222 on 1 procs for 34 steps with 500 atoms

Minimization stats:
  Stopping criterion = energy tolerance
  Energy initial, next-to-last, final =
  Force two-norm initial, final = 1241839.7 21.937038
  Force max component initial, final = 520356.97 10.690078
  Final line search alpha, max atom move = 0.0044469491 0.047538232
  Iterations, force evaluations = 34 79

# Speed up simulation with neighbour lists
neighbor 0.3 bin
neigh_modify every 20 delay 0 check yes

# Define thermodynamic ensemble for thermalization
fix nvt all nvt temp $T $T 1
fix nvt all nvt temp 1.4 $T 1
fix nvt all nvt temp 1.4 1.4 1

#Thermalization run
run 1000
Generated 0 of 0 mixed pair_coeff terms from geometric mixing rule
Step          Temp          E_pair         E_mol          TotEng         Press
34   1.4           -0.11919231     0              1.9766077      0.011112229
Loop time of 0.016068 on 1 procs for 1000 steps with 500 atoms

# Define thermodynamic ensemble for long run
unfix nvt
fix nve all nve

# Start heat addition and run to stabilize
fix heat all heat 1 10 region simbox
run 1000
Generated 0 of 0 mixed pair_coeff terms from geometric mixing rule
Step          Temp          E_pair         E_mol          TotEng         Press
1034   1.3700484     -0.061432029    0              1.9895304      0.010977282
Loop time of 0.024949 on 1 procs for 1000 steps with 500 atoms

#Define frequency of thermodynamic output and trajectory dump and start production run
thermo 100
dump 1 all custom 100 dump.lammpstrj id x y z vx vy vz
run 100000
Generated 0 of 0 mixed pair_coeff terms from geometric mixing rule
Step          Temp          E_pair         E_mol          TotEng         Press
2034   1.4395318     -0.065555546    0              2.0894236      0.011142191
Averages over the last 501 of 1002 rows, steps 52100 to 102034:
Temp E_pair E_mol TotEng Press
6.30229 -0.0328353 0 9.40169 0.0506913
Loop time of 4.35357 on 1 procs for 100000 steps with 500 atoms
