LAMMPS (15 Sep 2022)
Loaded 1 plugins from C:\Users\magnu\AppData\Local\LAMMPS 64-bit 15Sep2022\plugins
# Define variables
# Starting temperature:
variable T equal 1.4
# Number of particles:
variable N equal 500
# Density:
variable rho equal 0.021
# Length of sides of cubic box
variable L equal (500/0.021)^(1/3)
# How much heat to add per timestep
variable eFlux equal 10

# Use Lennard-Jones units, periodic boundaries and atomic model
units lj
boundary p p p
atom_style atomic

# Define the space and put atoms in
dimension 3
region simbox block 0 $L 0 $L 0 $L
region simbox block 0 28.7684791332394 0 $L 0 $L
region simbox block 0 28.7684791332394 0 28.7684791332394 0 $L
region simbox block 0 28.7684791332394 0 28.7684791332394 0 28.7684791332394
create_box 1 simbox
Created orthogonal box = (0 0 0) to (28.768479 28.768479 28.768479)

# Define properties of the atoms

create_atoms 1 random $N 12345 simbox
create_atoms 1 random 500 12345 simbox
Created 500 atoms
mass 1 1.0
velocity all create $T 87287
velocity all create 1.4 87287
pair_style lj/cut 2.5
pair_coeff 1 1 1.0 1.0 2.5

#make sure no explosion happens
minimize 1e-4 1e-4 100 100
Generated 0 of 0 mixed pair_coeff terms from geometric mixing rule
Step          Temp          E_pair         E_mol          TotEng         Press
0   1.4            5025.9309      0              5028.0267      422.6849
Loop time of 0.003386 on 1 procs for 49 steps with 500 atoms

Minimization stats:
  Stopping criterion = max force evaluations
  Energy initial, next-to-last, final =
  Force two-norm initial, final = 81781646 10.836633
  Force max component initial, final = 34258219 2.8700977
  Final line search alpha, max atom move = 0.016408966 0.047095336
  Iterations, force evaluations = 49 101

# Speed up simulation with neighbour lists
neighbor 0.3 bin
neigh_modify every 20 delay 0 check yes

# Define thermodynamic ensemble for thermalization
fix nvt all nvt temp $T $T 1
fix nvt all nvt temp 1.4 $T 1
fix nvt all nvt temp 1.4 1.4 1

#Thermalization run
run 1000
Generated 0 of 0 mixed pair_coeff terms from geometric mixing rule
Step          Temp          E_pair         E_mol          TotEng         Press
49   1.4           -0.35652704     0              1.739273       0.028242903
Loop time of 0.019133 on 1 procs for 1000 steps with 500 atoms

# Define thermodynamic ensemble for long run
unfix nvt
fix nve all nve

# Start heat addition and run to stabilize
fix heat all heat 1 10 region simbox
run 1000
Generated 0 of 0 mixed pair_coeff terms from geometric mixing rule
Step          Temp          E_pair         E_mol          TotEng         Press
1049   1.3819583     -0.16294165     0              1.90585        0.028241394
Loop time of 0.030143 on 1 procs for 1000 steps with 500 atoms

#Define frequency of thermodynamic output and trajectory dump and start production run
thermo 100
dump 1 all custom 100 dump.lammpstrj id x y z vx vy vz
run 100000
Generated 0 of 0 mixed pair_coeff terms from geometric mixing rule
Step          Temp          E_pair         E_mol          TotEng         Press
2049   1.4322728     -0.1382228      0              2.0058895      0.029124059
Averages over the last 501 of 1002 rows, steps 52100 to 102049:
Temp E_pair E_mol TotEng Press
6.09076 -0.0901416 0 9.02773 0.129943
Loop time of 5.53289 on 1 procs for 100000 steps with 500 atoms
