LAMMPS (15 Sep 2022)
Loaded 1 plugins from C:\Users\magnu\AppData\Local\LAMMPS 64-bit 15Sep2022\plugins
# Define variables
# Starting temperature:
variable T equal 1.4
# Number of particles:
variable N equal 500
# Density:
variable rho equal 0.3
# Length of sides of cubic box
variable L equal (500/0.3)^(1/3)
# How much heat to add per timestep
variable eFlux equal 10

# Use Lennard-Jones units, periodic boundaries and atomic model
units lj
boundary p p p
atom_style atomic

# Define the space and put atoms in
dimension 3
region simbox block 0 $L 0 $L 0 $L
region simbox block 0 11.8563110149669 0 $L 0 $L
region simbox block 0 11.8563110149669 0 11.8563110149669 0 $L
region simbox block 0 11.8563110149669 0 11.8563110149669 0 11.8563110149669
create_box 1 simbox
Created orthogonal box = (0 0 0) to (11.856311 11.856311 11.856311)

# Define properties of the atoms

create_atoms 1 random $N 12345 simbox
create_atoms 1 random 500 12345 simbox
Created 500 atoms
mass 1 1.0
velocity all create $T 87287
velocity all create 1.4 87287
pair_style lj/cut 2.5
pair_coeff 1 1 1.0 1.0 2.5

#make sure no explosion happens
minimize 1e-4 1e-4 100 100
Generated 0 of 0 mixed pair_coeff terms from geometric mixing rule
Step          Temp          E_pair         E_mol          TotEng         Press
0   1.4            2.0979762e+08  0              2.0979762e+08  2.5175854e+08
Loop time of 0.025179 on 1 procs for 55 steps with 500 atoms

Minimization stats:
  Stopping criterion = max force evaluations
  Energy initial, next-to-last, final =
  Force two-norm initial, final = 8.2723519e+12 67.709182
  Force max component initial, final = 3.4651082e+12 11.714657
  Final line search alpha, max atom move = 0.0074735917 0.087550564
  Iterations, force evaluations = 55 101

# Speed up simulation with neighbour lists
neighbor 0.3 bin
neigh_modify every 20 delay 0 check yes

# Define thermodynamic ensemble for thermalization
fix nvt all nvt temp $T $T 1
fix nvt all nvt temp 1.4 $T 1
fix nvt all nvt temp 1.4 1.4 1

#Thermalization run
run 1000
Generated 0 of 0 mixed pair_coeff terms from geometric mixing rule
Step          Temp          E_pair         E_mol          TotEng         Press
55   1.4           -3.6261048      0             -1.5303048      0.093367715
Loop time of 0.096527 on 1 procs for 1000 steps with 500 atoms

# Define thermodynamic ensemble for long run
unfix nvt
fix nve all nve

# Start heat addition and run to stabilize
fix heat all heat 1 10 region simbox
run 1000
Generated 0 of 0 mixed pair_coeff terms from geometric mixing rule
Step          Temp          E_pair         E_mol          TotEng         Press
1055   1.4435963     -1.9556461      0              0.20541758     0.30955078
Loop time of 0.101376 on 1 procs for 1000 steps with 500 atoms

#Define frequency of thermodynamic output and trajectory dump and start production run
thermo 100
dump 1 all custom 100 dump.lammpstrj id x y z vx vy vz
run 100000
Generated 0 of 0 mixed pair_coeff terms from geometric mixing rule
Step          Temp          E_pair         E_mol          TotEng         Press
2055   1.4584647     -1.8802711      0              0.30305052     0.32544903
Averages over the last 501 of 1002 rows, steps 52100 to 102055:
Temp E_pair E_mol TotEng Press
4.1176 -1.43555 0 4.7285 1.6494
Loop time of 13.2881 on 1 procs for 100000 steps with 500 atoms
