LAMMPS (15 Sep 2022)
Loaded 1 plugins from C:\Users\magnu\AppData\Local\LAMMPS 64-bit 15Sep2022\plugins
# Define variables
# Starting temperature:
variable T equal 1.4
# Number of particles:
variable N equal 500
# Density:
variable rho equal 0.86
# Length of sides of cubic box
variable L equal (500/0.86)^(1/3)
# How much heat to add per timestep
variable eFlux equal 10

# Use Lennard-Jones units, periodic boundaries and atomic model
units lj
boundary p p p
atom_style atomic

# Define the space and put atoms in
dimension 3
region simbox block 0 $L 0 $L 0 $L
region simbox block 0 8.346233250726 0 $L 0 $L
region simbox block 0 8.346233250726 0 8.346233250726 0 $L
region simbox block 0 8.346233250726 0 8.346233250726 0 8.346233250726
create_box 1 simbox
Created orthogonal box = (0 0 0) to (8.3462333 8.3462333 8.3462333)

# Define properties of the atoms

create_atoms 1 random $N 12345 simbox
create_atoms 1 random 500 12345 simbox
Created 500 atoms
mass 1 1.0
velocity all create $T 87287
velocity all create 1.4 87287
pair_style lj/cut 2.5
pair_coeff 1 1 1.0 1.0 2.5

#make sure no explosion happens
minimize 1e-4 1e-4 100 100
Generated 0 of 0 mixed pair_coeff terms from geometric mixing rule
Step          Temp          E_pair         E_mol          TotEng         Press
0   1.4            1.4168164e+10  0              1.4168164e+10  4.8738516e+10
Loop time of 0.049814 on 1 procs for 58 steps with 500 atoms

Minimization stats:
  Stopping criterion = max force evaluations
  Energy initial, next-to-last, final =
  Force two-norm initial, final = 7.9359436e+14 38.148368
  Force max component initial, final = 3.3241934e+14 6.3397483
  Final line search alpha, max atom move = 0.010934611 0.069322683
  Iterations, force evaluations = 58 101

# Speed up simulation with neighbour lists
neighbor 0.3 bin
neigh_modify every 20 delay 0 check yes

# Define thermodynamic ensemble for thermalization
fix nvt all nvt temp $T $T 1
fix nvt all nvt temp 1.4 $T 1
fix nvt all nvt temp 1.4 1.4 1

#Thermalization run
run 1000
Generated 0 of 0 mixed pair_coeff terms from geometric mixing rule
Step          Temp          E_pair         E_mol          TotEng         Press
58   1.4           -6.5016923      0             -4.4058923     -1.7120189
Loop time of 0.224069 on 1 procs for 1000 steps with 500 atoms

# Define thermodynamic ensemble for long run
unfix nvt
fix nve all nve

# Start heat addition and run to stabilize
fix heat all heat 1 10 region simbox
run 1000
Generated 0 of 0 mixed pair_coeff terms from geometric mixing rule
Step          Temp          E_pair         E_mol          TotEng         Press
1058   1.4850686     -4.955074       0             -2.7319263      5.6136689
Loop time of 0.22669 on 1 procs for 1000 steps with 500 atoms

#Define frequency of thermodynamic output and trajectory dump and start production run
thermo 100
dump 1 all custom 100 dump.lammpstrj id x y z vx vy vz
run 100000
Generated 0 of 0 mixed pair_coeff terms from geometric mixing rule
Step          Temp          E_pair         E_mol          TotEng         Press
2058   1.5743497     -4.9898792      0             -2.6330777      5.5006003
Averages over the last 501 of 1002 rows, steps 52100 to 102058:
Temp E_pair E_mol TotEng Press
3.60456 -3.28674 0 2.10928 14.7991
Loop time of 27.8662 on 1 procs for 100000 steps with 500 atoms
