LAMMPS (15 Sep 2022)
Loaded 1 plugins from C:\Users\magnu\AppData\Local\LAMMPS 64-bit 15Sep2022\plugins
# Define variables
# Starting temperature:
variable T equal 1.4
# Number of particles:
variable N equal 500
# Density:
variable rho equal 0.051
# Length of sides of cubic box
variable L equal (500/0.051)^(1/3)
# How much heat to add per timestep
variable eFlux equal 10

# Use Lennard-Jones units, periodic boundaries and atomic model
units lj
boundary p p p
atom_style atomic

# Define the space and put atoms in
dimension 3
region simbox block 0 $L 0 $L 0 $L
region simbox block 0 21.4026036723665 0 $L 0 $L
region simbox block 0 21.4026036723665 0 21.4026036723665 0 $L
region simbox block 0 21.4026036723665 0 21.4026036723665 0 21.4026036723665
create_box 1 simbox
Created orthogonal box = (0 0 0) to (21.402604 21.402604 21.402604)

# Define properties of the atoms

create_atoms 1 random $N 12345 simbox
create_atoms 1 random 500 12345 simbox
Created 500 atoms
mass 1 1.0
velocity all create $T 87287
velocity all create 1.4 87287
pair_style lj/cut 2.5
pair_coeff 1 1 1.0 1.0 2.5

#make sure no explosion happens
minimize 1e-4 1e-4 100 100
Generated 0 of 0 mixed pair_coeff terms from geometric mixing rule
Step          Temp          E_pair         E_mol          TotEng         Press
0   1.4            175159.94      0              175162.04      35739.54
Loop time of 0.005652 on 1 procs for 50 steps with 500 atoms

Minimization stats:
  Stopping criterion = max force evaluations
  Energy initial, next-to-last, final =
  Force two-norm initial, final = 3.8268535e+09 30.724901
  Force max component initial, final = 1.6029985e+09 9.7873819
  Final line search alpha, max atom move = 0.016454574 0.1610472
  Iterations, force evaluations = 50 100

# Speed up simulation with neighbour lists
neighbor 0.3 bin
neigh_modify every 20 delay 0 check yes

# Define thermodynamic ensemble for thermalization
fix nvt all nvt temp $T $T 1
fix nvt all nvt temp 1.4 $T 1
fix nvt all nvt temp 1.4 1.4 1

#Thermalization run
run 1000
Generated 0 of 0 mixed pair_coeff terms from geometric mixing rule
Step          Temp          E_pair         E_mol          TotEng         Press
50   1.4           -0.91992905     0              1.175871       0.06248481
Loop time of 0.028366 on 1 procs for 1000 steps with 500 atoms

# Define thermodynamic ensemble for long run
unfix nvt
fix nve all nve

# Start heat addition and run to stabilize
fix heat all heat 1 10 region simbox
run 1000
Generated 0 of 0 mixed pair_coeff terms from geometric mixing rule
Step          Temp          E_pair         E_mol          TotEng         Press
1050   1.3657822     -0.40332509     0              1.6412509      0.059030186
Loop time of 0.043356 on 1 procs for 1000 steps with 500 atoms

#Define frequency of thermodynamic output and trajectory dump and start production run
thermo 100
dump 1 all custom 100 dump.lammpstrj id x y z vx vy vz
run 100000
Generated 0 of 0 mixed pair_coeff terms from geometric mixing rule
Step          Temp          E_pair         E_mol          TotEng         Press
2050   1.4259876     -0.39336404     0              1.7413394      0.065319527
Averages over the last 501 of 1002 rows, steps 52100 to 102050:
Temp E_pair E_mol TotEng Press
5.6494 -0.22278 0 8.23437 0.299929
Loop time of 5.66155 on 1 procs for 100000 steps with 500 atoms
