LAMMPS (15 Sep 2022)
Loaded 1 plugins from C:\Users\magnu\AppData\Local\LAMMPS 64-bit 15Sep2022\plugins
# Define variables
# Starting temperature:
variable T equal 1.4
# Number of particles:
variable N equal 500
# Density:
variable rho equal 0.013
# Length of sides of cubic box
variable L equal (500/0.013)^(1/3)
# How much heat to add per timestep
variable eFlux equal 10

# Use Lennard-Jones units, periodic boundaries and atomic model
units lj
boundary p p p
atom_style atomic

# Define the space and put atoms in
dimension 3
region simbox block 0 $L 0 $L 0 $L
region simbox block 0 33.7553190589582 0 $L 0 $L
region simbox block 0 33.7553190589582 0 33.7553190589582 0 $L
region simbox block 0 33.7553190589582 0 33.7553190589582 0 33.7553190589582
create_box 1 simbox
Created orthogonal box = (0 0 0) to (33.755319 33.755319 33.755319)

# Define properties of the atoms

create_atoms 1 random $N 12345 simbox
create_atoms 1 random 500 12345 simbox
Created 500 atoms
mass 1 1.0
velocity all create $T 87287
velocity all create 1.4 87287
pair_style lj/cut 2.5
pair_coeff 1 1 1.0 1.0 2.5

#make sure no explosion happens
minimize 1e-4 1e-4 100 100
Generated 0 of 0 mixed pair_coeff terms from geometric mixing rule
Step          Temp          E_pair         E_mol          TotEng         Press
0   1.4            735.41201      0              737.50781      38.372765
Loop time of 0.003026 on 1 procs for 43 steps with 500 atoms

Minimization stats:
  Stopping criterion = max force evaluations
  Energy initial, next-to-last, final =
  Force two-norm initial, final = 10220739 14.559885
  Force max component initial, final = 4281794.3 4.0095276
  Final line search alpha, max atom move = 0.016322232 0.06544444
  Iterations, force evaluations = 43 100

# Speed up simulation with neighbour lists
neighbor 0.3 bin
neigh_modify every 20 delay 0 check yes

# Define thermodynamic ensemble for thermalization
fix nvt all nvt temp $T $T 1
fix nvt all nvt temp 1.4 $T 1
fix nvt all nvt temp 1.4 1.4 1

#Thermalization run
run 1000
Generated 0 of 0 mixed pair_coeff terms from geometric mixing rule
Step          Temp          E_pair         E_mol          TotEng         Press
43   1.4           -0.21430316     0              1.8814968      0.017603152
Loop time of 0.019538 on 1 procs for 1000 steps with 500 atoms

# Define thermodynamic ensemble for long run
unfix nvt
fix nve all nve

# Start heat addition and run to stabilize
fix heat all heat 1 10 region simbox
run 1000
Generated 0 of 0 mixed pair_coeff terms from geometric mixing rule
Step          Temp          E_pair         E_mol          TotEng         Press
1043   1.3538362     -0.11720916     0              1.9094837      0.017692062
Loop time of 0.028709 on 1 procs for 1000 steps with 500 atoms

#Define frequency of thermodynamic output and trajectory dump and start production run
thermo 100
dump 1 all custom 100 dump.lammpstrj id x y z vx vy vz
run 100000
Generated 0 of 0 mixed pair_coeff terms from geometric mixing rule
Step          Temp          E_pair         E_mol          TotEng         Press
2043   1.4146605     -0.1081449      0              2.0096018      0.017756379
Averages over the last 501 of 1002 rows, steps 52100 to 102043:
Temp E_pair E_mol TotEng Press
6.18611 -0.0513746 0 9.20924 0.0813509
Loop time of 4.49757 on 1 procs for 100000 steps with 500 atoms
