LAMMPS (15 Sep 2022)
Loaded 1 plugins from C:\Users\magnu\AppData\Local\LAMMPS 64-bit 15Sep2022\plugins
# Define variables
# Starting temperature:
variable T equal 0.69
# Number of particles:
variable N equal 500
# Density:
variable rho equal 0.001
# Length of sides of cubic box
variable L equal (500/0.001)^(1/3)
# How much heat to add per timestep
variable eFlux equal 10

# Use Lennard-Jones units, periodic boundaries and atomic model
units lj
boundary p p p
atom_style atomic

# Define the space and put atoms in
dimension 3
region simbox block 0 $L 0 $L 0 $L
region simbox block 0 79.37005259841 0 $L 0 $L
region simbox block 0 79.37005259841 0 79.37005259841 0 $L
region simbox block 0 79.37005259841 0 79.37005259841 0 79.37005259841
create_box 1 simbox
Created orthogonal box = (0 0 0) to (79.370053 79.370053 79.370053)

# Define properties of the atoms

create_atoms 1 random $N 12345 simbox
create_atoms 1 random 500 12345 simbox
Created 500 atoms
mass 1 1.0
velocity all create $T 87287
velocity all create 0.69 87287
pair_style lj/cut 2.5
pair_coeff 1 1 1.0 1.0 2.5

#make sure no explosion happens
minimize 1e-4 1e-4 100 100
Generated 0 of 0 mixed pair_coeff terms from geometric mixing rule
Step          Temp          E_pair         E_mol          TotEng         Press
0   0.69           0.00059343953  0              1.0335234      0.00074160809
Loop time of 0.005348 on 1 procs for 37 steps with 500 atoms

Minimization stats:
  Stopping criterion = max force evaluations
  Energy initial, next-to-last, final =
  Force two-norm initial, final = 91.108548 1.9001219
  Force max component initial, final = 39.345316 0.93413558
  Final line search alpha, max atom move = 0.020108369 0.018783942
  Iterations, force evaluations = 37 101

# Speed up simulation with neighbour lists
neighbor 0.3 bin
neigh_modify every 20 delay 0 check yes

# Define thermodynamic ensemble for thermalization
fix nvt all nvt temp $T $T 1
fix nvt all nvt temp 0.69 $T 1
fix nvt all nvt temp 0.69 0.69 1

#Thermalization run
run 1000
Generated 0 of 0 mixed pair_coeff terms from geometric mixing rule
Step          Temp          E_pair         E_mol          TotEng         Press
37   0.69          -0.03017932     0              1.0027507      0.00069013202
Loop time of 0.017733 on 1 procs for 1000 steps with 500 atoms

# Define thermodynamic ensemble for long run
unfix nvt
fix nve all nve

# Start heat addition and run to stabilize
fix heat all heat 1 10 region simbox
run 1000
Generated 0 of 0 mixed pair_coeff terms from geometric mixing rule
Step          Temp          E_pair         E_mol          TotEng         Press
1037   0.66034361    -0.015455242    0              0.97307915     0.00064630868
Loop time of 0.027924 on 1 procs for 1000 steps with 500 atoms

#Define frequency of thermodynamic output and trajectory dump and start production run
thermo 100
dump 1 all custom 100 dump.lammpstrj id x y z vx vy vz
run 100000
Generated 0 of 0 mixed pair_coeff terms from geometric mixing rule
Step          Temp          E_pair         E_mol          TotEng         Press
2037   0.72928207    -0.018591068    0              1.0731442      0.00072210682
Averages over the last 501 of 1002 rows, steps 52100 to 102037:
Temp E_pair E_mol TotEng Press
5.72278 -0.00418091 0 8.56282 0.00571665
Loop time of 4.78855 on 1 procs for 100000 steps with 500 atoms
